2R3K.A
  MOE2019           3D
TRANSFERASE
 38 41  0  0  0  0  0  0  0  0999 V2000
   -0.3820   31.7800    8.6640 C   0  0  0  0  0  0  0  0  0  0  0  0
    0.1670   30.5590    8.9710 C   0  0  0  0  0  0  0  0  0  0  0  0
    1.3800   30.5110    8.3510 N   0  0  0  0  0  0  0  0  0  0  0  0
    1.6120   31.6870    7.6480 N   0  0  0  0  0  0  0  0  0  0  0  0
    0.5380   32.4470    7.8470 C   0  0  0  0  0  0  0  0  0  0  0  0
    0.3966   33.4361    7.4371 H   0  0  0  0  0  0  0  0  0  0  0  0
   -0.3240   29.4720    9.7700 C   0  0  0  0  0  0  0  0  0  0  0  0
   -1.2855   29.5281   10.2587 H   0  0  0  0  0  0  0  0  0  0  0  0
    0.4650   28.3660    9.8910 C   0  0  0  0  0  0  0  0  0  0  0  0
    1.7410   28.3370    9.2260 C   0  0  0  0  0  0  0  0  0  0  0  0
    2.3634   27.4598    9.3237 H   0  0  0  0  0  0  0  0  0  0  0  0
    2.1990   29.4130    8.4560 C   0  0  0  0  0  0  0  0  0  0  0  0
    3.4130   29.4610    7.8030 N   0  0  0  0  0  0  0  0  0  0  0  0
    3.5800   30.1508    7.0844 H   0  0  0  0  0  0  0  0  0  0  0  0
    0.0270   27.1920   10.6960 C   0  0  0  0  0  0  0  0  0  0  0  0
    4.4530   28.5030    8.1630 C   0  0  0  0  0  0  0  0  0  0  0  0
    4.2044   28.0194    9.1077 H   0  0  0  0  0  0  0  0  0  0  0  0
    5.4127   29.0113    8.2566 H   0  0  0  0  0  0  0  0  0  0  0  0
    4.5160   27.4910    7.0730 C   0  0  0  0  0  0  0  0  0  0  0  0
    4.7150   27.8440    5.7340 C   0  0  0  0  0  0  0  0  0  0  0  0
    4.8506   28.8867    5.4875 H   0  0  0  0  0  0  0  0  0  0  0  0
    4.7440   26.9450    4.7500 N   0  0  0  0  0  0  0  0  0  0  0  0
    4.5650   25.6710    5.1210 C   0  0  0  0  0  0  0  0  0  0  0  0
    4.6105   24.9326    4.3342 H   0  0  0  0  0  0  0  0  0  0  0  0
    4.3350   25.2060    6.3620 N   0  0  0  0  0  0  0  0  0  0  0  0
    4.3210   26.1300    7.3300 C   0  0  0  0  0  0  0  0  0  0  0  0
    4.1527   25.8127    8.3485 H   0  0  0  0  0  0  0  0  0  0  0  0
   -0.1020   27.2750   12.0940 C   0  0  0  0  0  0  0  0  0  0  0  0
    0.1268   28.2013   12.6001 H   0  0  0  0  0  0  0  0  0  0  0  0
   -0.5260   26.1620   12.8350 C   0  0  0  0  0  0  0  0  0  0  0  0
   -0.6235   26.2338   13.9082 H   0  0  0  0  0  0  0  0  0  0  0  0
   -0.8220   24.9620   12.1870 C   0  0  0  0  0  0  0  0  0  0  0  0
   -1.1470   24.1038   12.7564 H   0  0  0  0  0  0  0  0  0  0  0  0
   -0.6960   24.8760   10.7980 C   0  0  0  0  0  0  0  0  0  0  0  0
   -0.9220   23.9486   10.2928 H   0  0  0  0  0  0  0  0  0  0  0  0
   -0.2780   25.9880   10.0610 C   0  0  0  0  0  0  0  0  0  0  0  0
   -0.1902   25.9140    8.9871 H   0  0  0  0  0  0  0  0  0  0  0  0
   -2.0210   32.3970    9.2230 Br  0  0  0  0  0  0  0  0  0  0  0  0
  1  2  2  0  0  0  0
  1  5  1  0  0  0  0
  1 38  1  0  0  0  0
  2  3  1  0  0  0  0
  2  7  1  0  0  0  0
  3  4  1  0  0  0  0
  3 12  1  0  0  0  0
  4  5  2  0  0  0  0
  5  6  1  0  0  0  0
  7  8  1  0  0  0  0
  7  9  2  0  0  0  0
  9 10  1  0  0  0  0
  9 15  1  0  0  0  0
 10 11  1  0  0  0  0
 10 12  2  0  0  0  0
 12 13  1  0  0  0  0
 13 14  1  0  0  0  0
 13 16  1  0  0  0  0
 15 28  1  0  0  0  0
 15 36  2  0  0  0  0
 16 17  1  0  0  0  0
 16 18  1  0  0  0  0
 16 19  1  0  0  0  0
 19 20  1  0  0  0  0
 19 26  2  0  0  0  0
 20 21  1  0  0  0  0
 20 22  2  0  0  0  0
 22 23  1  0  0  0  0
 23 24  1  0  0  0  0
 23 25  2  0  0  0  0
 25 26  1  0  0  0  0
 26 27  1  0  0  0  0
 28 29  1  0  0  0  0
 28 30  2  0  0  0  0
 30 31  1  0  0  0  0
 30 32  1  0  0  0  0
 32 33  1  0  0  0  0
 32 34  2  0  0  0  0
 34 35  1  0  0  0  0
 34 36  1  0  0  0  0
 36 37  1  0  0  0  0
M  END
$$$$
