LZE-7AGA-A  
  MOE2022           3D

 48 50  0  0  0  0  0  0  0  0999 V2000
    7.9078   -2.0459   14.1378 C   0  0  0  0  0  0  0  0  0  0  0  0
    7.6706   -1.2368   13.4411 H   0  0  0  0  0  0  0  0  0  0  0  0
    6.9972   -2.6302   14.2909 H   0  0  0  0  0  0  0  0  0  0  0  0
    8.3568   -1.4482   15.4728 C   0  0  0  0  0  0  0  0  0  0  0  0
    8.4965   -2.2456   16.2037 H   0  0  0  0  0  0  0  0  0  0  0  0
    7.5847   -0.7691   15.8359 H   0  0  0  0  0  0  0  0  0  0  0  0
    9.6678   -0.6787   15.2924 C   0  0  0  0  0  0  0  0  0  0  0  0
    9.4947    0.1483   14.5967 H   0  0  0  0  0  0  0  0  0  0  0  0
   10.1301   -0.1501   16.5558 N   0  0  0  0  0  0  0  0  0  0  0  0
   10.7296   -0.7276   17.1678 H   0  0  0  0  0  0  0  0  0  0  0  0
    9.9104    1.1138   17.0132 C   0  0  0  0  0  0  0  0  0  0  0  0
    9.1976    1.8590   16.3249 O   0  0  0  0  0  0  0  0  0  0  0  0
   10.5150    1.4845   18.2872 C   0  0  0  0  0  0  0  0  0  0  0  0
   11.2909    0.7072   19.0465 N   0  0  0  0  0  0  0  0  0  0  0  0
   11.6203    1.4871   20.1119 N   0  0  0  0  0  0  0  0  0  0  0  0
   12.2288    1.1521   20.8842 H   0  0  0  0  0  0  0  0  0  0  0  0
   11.0712    2.7257   20.0468 C   0  0  0  0  0  0  0  0  0  0  0  0
   11.2138    3.4720   20.7859 H   0  0  0  0  0  0  0  0  0  0  0  0
   10.3706    2.7312   18.8977 C   0  0  0  0  0  0  0  0  0  0  0  0
    9.5987    3.7949   18.3549 N   0  0  0  0  0  0  0  0  0  0  0  0
    9.0556    3.5882   17.5016 H   0  0  0  0  0  0  0  0  0  0  0  0
    9.5252    5.0889   18.7805 C   0  0  0  0  0  0  0  0  0  0  0  0
   10.1348    5.4580   19.7753 O   0  0  0  0  0  0  0  0  0  0  0  0
    8.6815    5.9540   17.9741 C   0  0  0  0  0  0  0  0  0  0  0  0
    7.4416    6.3848   18.4759 C   0  0  0  0  0  0  0  0  0  0  0  0
    6.6438    7.2128   17.6992 C   0  0  0  0  0  0  0  0  0  0  0  0
    5.7242    7.5578   18.0863 H   0  0  0  0  0  0  0  0  0  0  0  0
    7.0434    7.5900   16.4231 C   0  0  0  0  0  0  0  0  0  0  0  0
    6.4276    8.2182   15.8309 H   0  0  0  0  0  0  0  0  0  0  0  0
    8.2555    7.1453   15.9154 C   0  0  0  0  0  0  0  0  0  0  0  0
    8.5499    7.4351   14.9410 H   0  0  0  0  0  0  0  0  0  0  0  0
    9.0855    6.3384   16.6796 C   0  0  0  0  0  0  0  0  0  0  0  0
   10.7428   -1.5944   14.7084 C   0  0  0  0  0  0  0  0  0  0  0  0
   10.9755   -2.3920   15.4150 H   0  0  0  0  0  0  0  0  0  0  0  0
   11.6483   -1.0131   14.5260 H   0  0  0  0  0  0  0  0  0  0  0  0
    8.9733   -2.9099   13.5719 N   0  0  0  0  0  0  0  0  0  0  0  0
    9.1145   -3.7142   14.1759 H   0  0  0  0  0  0  0  0  0  0  0  0
   10.2610   -2.2038   13.3964 C   0  0  0  0  0  0  0  0  0  0  0  0
   11.0169   -2.8986   13.0204 H   0  0  0  0  0  0  0  0  0  0  0  0
   10.1368   -1.3998   12.6681 H   0  0  0  0  0  0  0  0  0  0  0  0
   10.4136    5.9233   16.0722 C   0  0  0  0  0  0  0  0  0  0  0  0
   11.0386    5.3564   16.7548 H   0  0  0  0  0  0  0  0  0  0  0  0
   10.9817    6.8097   15.7946 H   0  0  0  0  0  0  0  0  0  0  0  0
   10.2562    5.3134   15.1837 H   0  0  0  0  0  0  0  0  0  0  0  0
    6.9237    5.9665   19.8454 C   0  0  0  0  0  0  0  0  0  0  0  0
    7.5476    5.2254   20.3455 H   0  0  0  0  0  0  0  0  0  0  0  0
    5.9336    5.5340   19.7398 H   0  0  0  0  0  0  0  0  0  0  0  0
    6.8381    6.8268   20.5082 H   0  0  0  0  0  0  0  0  0  0  0  0
  1  2  1  0  0  0  0
  1  3  1  0  0  0  0
  1  4  1  0  0  0  0
  1 36  1  0  0  0  0
  4  5  1  0  0  0  0
  4  6  1  0  0  0  0
  4  7  1  0  0  0  0
  7  8  1  0  0  0  0
  7  9  1  0  0  0  0
  7 33  1  0  0  0  0
  9 10  1  0  0  0  0
  9 11  1  0  0  0  0
 11 12  2  0  0  0  0
 11 13  1  0  0  0  0
 13 14  2  0  0  0  0
 13 19  1  0  0  0  0
 14 15  1  0  0  0  0
 15 16  1  0  0  0  0
 15 17  1  0  0  0  0
 17 18  1  0  0  0  0
 17 19  2  0  0  0  0
 19 20  1  0  0  0  0
 20 21  1  0  0  0  0
 20 22  1  0  0  0  0
 22 23  2  0  0  0  0
 22 24  1  0  0  0  0
 24 25  1  0  0  0  0
 24 32  2  0  0  0  0
 25 26  2  0  0  0  0
 25 45  1  0  0  0  0
 26 27  1  0  0  0  0
 26 28  1  0  0  0  0
 28 29  1  0  0  0  0
 28 30  2  0  0  0  0
 30 31  1  0  0  0  0
 30 32  1  0  0  0  0
 32 41  1  0  0  0  0
 33 34  1  0  0  0  0
 33 35  1  0  0  0  0
 33 38  1  0  0  0  0
 36 37  1  0  0  0  0
 36 38  1  0  0  0  0
 38 39  1  0  0  0  0
 38 40  1  0  0  0  0
 41 42  1  0  0  0  0
 41 43  1  0  0  0  0
 41 44  1  0  0  0  0
 45 46  1  0  0  0  0
 45 47  1  0  0  0  0
 45 48  1  0  0  0  0
M  END
$$$$
